ipss.test.plugin.core/testData/pwd/10Bus_zeroImpedance.aux
//--------------------------------------------------------------------------------
//CASE INFORMATION
//--------------------------------------------------------------------------------
DATA (PWCASEINFORMATION, [BusNum,AreaNum,ZoneNum,BGLossMW,BGLossMVR,LoadMW,LoadMW:1,LoadMVR,LoadMVR:1,
   SSAMVR,GenMW,GenMW:1,GenMVR,GenMVR:1,PVmonBusPLoad,PVmonBusQLoad,PVMonGenMW,
   PVMonGenMVR,IntNum,BGPosSpinReserve,BGNegSpinReserve,SubNum,MTDCNum,BusSlack,
   SSAMW,pwDocLocalPath,MonBranchPLoss,MonBranchQLoss,PVMonShuntActQ,
   PVMonShuntActP,BGNIslands,GenNum,BusLoadNum,SSNum,BranchNum,BranchNum:1,
   BranchNum:2,BranchNum:3,BranchNum:4,BranchNum:5,BranchNum:6,BranchNum:7,
   BranchNum:8,BranchNum:9,BranchNum:10,DCLineNum,InjGrpNum])
{
    10      2      3  3.581 66.248 400.000  0.000 50.000  0.000 -7.000 407.233  0.000  0.000  0.000 "NO " "NO " "NO " "NO "      0 -207.233 405.233      0      0 "     03W_Gen_SW (1) in Area 1 (1);"  7.000 "E:\IpssDevWorkspace\ipss.test.plugin.core\testData\pwd\14Bus_zeroImpedance.aux" "NO " "NO " "NO " "NO "      1      2      1      0     10      0      1      1      0      0      0      0      0      0      0      0      0
   <SUBDATA PWCaseHeader>
     //Case Description
   </SUBDATA>
}

DATA (BUS, [BusNum,BusName,BusNomVolt,BusPUVolt,BusAngle,BusG:1,BusB:1,AreaNum,ZoneNum,
   SubNum,BusSlack,BusStatus,BusNum:1,BusName_NomVolt:1,BusLongName,BusKVVolt,
   BusRad,BusE,BusF,BusMCMW,BusMWMCEnergy,BusMWMCCongestion,BusMWMCLosses,
   BusMCMVAR,BusMvarMCCongestion,BusMvarMCLosses,BusMCVolt,BusRGVoltSet,OwnerNum,
   BusEquiv,BusScale,TimeDomainSelected,LSName,BusMonEle,BusVoltLim,
   BusVoltLimLow,BusVoltLimHigh,BusVoltLPUnenforce,LPOPFConstraint,BusLossSensMW,
   BusLossSensMVR,DCLossMultiplier,Latitude,Longitude,LatitudeString,
   LongitudeString,Datum,PVmonBusVoltage,PVMonBusVoltageKV,PVmonBusAngle,
   pvMonVQSense,PVmonBusPLoad,PVmonBusQLoad,PVMonBusShunt,qvBusMinVolt,
   qvBusMaxVolt,qvBusStepSize])
{
    1 "3W_Gen_SW"  19.40 1.000000   0.000000   1.0000   1.0000      1      6 "" "YES" "Connected" "" "" "3W_Gen_SW   19.4"  19.4000   0.000000   1.0000   0.0000   0.0000   0.0000   0.0000   0.0000 "Slack Bus" "Slack Bus" "Slack Bus"   0.0000 ""      1 "Study" "NO " "NO " "Default" "YES" "NO "   0.9000   1.1000 "   " "No"   0.0000   0.0000   1.0000 "" "" "" "" "" "NO " "NO " "NO " "NO " "NO " "NO " "NO "  0.100  1.100  0.010
    3 "3W_Out" 230.00 0.999960  -4.835969   1.0000   1.0000      1      6 "" "NO " "Connected" "" "" "3W_Out      230" 229.9907  -0.084404   0.9964  -0.0843   0.0000   0.0000   0.0000   0.0000   0.0000   0.0000   0.0000   0.0000 ""      1 "Study" "NO " "NO " "Default" "YES" "NO "   0.9000   1.1000 "   " "No"   0.0000   0.0000   1.0000 "" "" "" "" "" "NO " "NO " "NO " "NO " "NO " "NO " "NO "  0.100  1.100  0.010
    4 "To_End_Par" 230.00 0.999970  -9.555576   1.0000   1.0000      1      2 "" "NO " "Connected" "" "" "To_End_Par  230" 229.9931  -0.166776   0.9861  -0.1660   0.0000   0.0000   0.0000   0.0000   0.0000   0.0000   0.0000   0.0000 ""      1 "Study" "NO " "NO " "Default" "YES" "NO "   0.9000   1.1000 "   " "No"   0.0000   0.0000   1.0000 "" "" "" "" "" "NO " "NO " "NO " "NO " "NO " "NO " "NO "  0.100  1.100  0.010
    5 "Area_2_HV" 230.00 1.000025  -9.110000   2.0000   2.0000      2      2 "" "NO " "Connected" "" "" "Area_2_HV   230" 230.0057  -0.158999   0.9874  -0.1583   0.0000   0.0000   0.0000   0.0000   0.0000   0.0000   0.0000   0.0000 ""      2 "Study" "NO " "NO " "Default" "YES" "NO "   0.9000   1.1000 "   " "No"   0.0000   0.0000   1.0000 "" "" "" "" "" "NO " "NO " "NO " "NO " "NO " "NO " "NO "  0.100  1.100  0.010
    6 "Area_2_LV"  19.40 1.000015 -38.813713   2.0000   2.0000      2      2 "" "NO " "Connected" "" "" "Area_2_LV   19.4"  19.4003  -0.677427   0.7792  -0.6268   0.0000   0.0000   0.0000   0.0000 "PV Bus" "PV Bus" "PV Bus"   0.0000 ""      2 "Study" "NO " "NO " "Default" "YES" "NO "   0.9000   1.1000 "   " "No"   0.0000   0.0000   1.0000 "" "" "" "" "" "NO " "NO " "NO " "NO " "NO " "NO " "NO "  0.100  1.100  0.010
    7 "Bus7" 230.00 1.000020  -9.110000   0.0000   0.0000      1      1 "" "NO " "Connected" "" "" "7 138" 230.0046  -0.158999   0.9874  -0.1583 "Not Valid" "Not Valid" "Not Valid" "Not Valid" "Not Valid" "Not Valid" "Not Valid" "Not Valid" ""      1 "Study" "NO " "NO " "Default" "YES" "NO "   0.9000   1.1000 "   " "No"   0.0000   0.0000   1.0000 "" "" "" "" "" "NO " "NO " "NO " "NO " "NO " "NO " "NO "  0.100  1.100  0.010
    8 "Bus8" 230.00 1.000020  -9.110000   0.0000   0.0000      1      1 "" "NO " "Connected" "" "" "8 138" 230.0046  -0.158999   0.9874  -0.1583 "Not Valid" "Not Valid" "Not Valid" "Not Valid" "Not Valid" "Not Valid" "Not Valid" "Not Valid" ""      1 "Study" "NO " "NO " "Default" "YES" "NO "   0.9000   1.1000 "   " "No"   0.0000   0.0000   1.0000 "" "" "" "" "" "NO " "NO " "NO " "NO " "NO " "NO " "NO "  0.100  1.100  0.010
    9 "Bus9" 230.00 1.000000  -9.560000   0.0000   0.0000      1      1 "" "NO " "Connected" "" "" "Bus9 138" 230.0000  -0.166853   0.9861  -0.1661 "Not Valid" "Not Valid" "Not Valid" "Not Valid" "Not Valid" "Not Valid" "Not Valid" "Not Valid" ""      1 "Study" "NO " "NO " "Default" "YES" "NO "   0.9000   1.1000 "   " "No"   0.0000   0.0000   1.0000 "" "" "" "" "" "NO " "NO " "NO " "NO " "NO " "NO " "NO "  0.100  1.100  0.010
   10 "Bus10" 230.00 1.000001  -9.560000   0.0000   0.0000      1      1 "" "NO " "Connected" "" "" "Bus10 138" 230.0002  -0.166853   0.9861  -0.1661 "Not Valid" "Not Valid" "Not Valid" "Not Valid" "Not Valid" "Not Valid" "Not Valid" "Not Valid" ""      1 "Study" "NO " "NO " "Default" "YES" "NO "   0.9000   1.1000 "   " "No"   0.0000   0.0000   1.0000 "" "" "" "" "" "NO " "NO " "NO " "NO " "NO " "NO " "NO "  0.100  1.100  0.010
   11 "Bus11" 230.00 1.000001  -9.560000   0.0000   0.0000      1      1 "" "NO " "Connected" "" "" "Bus11 138" 230.0002  -0.166853   0.9861  -0.1661 "Not Valid" "Not Valid" "Not Valid" "Not Valid" "Not Valid" "Not Valid" "Not Valid" "Not Valid" ""      1 "Study" "NO " "NO " "Default" "YES" "NO "   0.9000   1.1000 "   " "No"   0.0000   0.0000   1.0000 "" "" "" "" "" "NO " "NO " "NO " "NO " "NO " "NO " "NO "  0.100  1.100  0.010
}

DATA (LOAD, [BusNum,LoadID,LoadStatus,LoadSMW,LoadSMVR,LoadIMW,LoadIMVR,LoadZMW,LoadZMVR,
   AreaNum,ZoneNum,GenAGCAble,OwnerNum])
{
    11 "1 " "Closed"   400.000    50.000     0.000     0.000     0.000     0.000      1      1 "YES"      1
}

DATA (GEN, [BusNum,GenID,GenStatus,GenMW,GenMVR,GenAGCAble,GenEnforceMWLimits,GenMWMin,
   GenMWMax,GenParFac,GenAVRAble,GenVoltSet,GenRegNum,GenMVRMin,GenMVRMax,
   GenRMPCT,GenUseCapCurve,GenUseLDCRCC,GenXLDCRCC,GenMVABase,GenZR,GenZX,
   GenStepR,GenStepX,GenStepTap,AreaNum,ZoneNum,CTGMakeUpGen,CTGMakeUpGen:1,
   GenPostCTGPreventAGC,TSGovRespLimit,GenMWOrgMin,GenMWOrgMax,GenFuelType,
   GenUnitType,GenIOA,GenIOB,GenIOC,GenIOD,GenVariableOM,GenExtraOMCost,
   GenExtraFuelCost,GenCostMultiplier,GenFuelCost,GenLPMW,GenOPFFastStart,
   TimeDomainSelected,PVMonGenMW,PVMonGenMVR,PVMonGenMVRReserve,GenZR,GenZX,
   GenStepR,GenStepX,GenStepTap,GenMVABase,GenRegNum,OwnerNum,OwnPercent])
{
    1 "1" "Closed"  307.2330    0.0000 "YES" "NO "    1.0000  100.0000    1.0000 "YES" 1.000000     1 -100.0000  300.0000   92.0000 "NO " "NO"  0.000  100.0000   0.00760   0.35430   0.00000   0.00000   1.00000      1      6 "" "" "NO" "Normal"   1.0000 100.0000 "Unknown" "UN (Unknown)"   0.0000  10.0000   0.0100   0.0000   0.0000   0.0000   0.0000   1.0000   1.0000 "If Agcable" "NO " "NO " "NO " "NO " "NO "   0.0076   0.3543   0.0000   0.0000   1.0000 100.0000     1      1 100.0000
    6 "1" "Closed"  100.0000    0.0000 "YES" "YES"    1.0000  100.0000    1.0000 "YES" 1.000000     6 -100.0000  200.0000   92.0000 "NO " "NO"  0.000  100.0000   0.00760   0.35430   0.00000   0.00000   1.00000      2      2 "" "" "NO" "Normal"   1.0000 100.0000 "Unknown" "UN (Unknown)"   0.0000  10.0000   0.0100   0.0000   0.0000   0.0000   0.0000   1.0000   1.0000 "If Agcable" "NO " "NO " "NO " "NO " "NO "   0.0076   0.3543   0.0000   0.0000   1.0000 100.0000     6      2 100.0000
}

DATA (BRANCH, [BusNum,BusNum:1,LineCircuit,LineStatus,LineR,LineX,LineC,LineG,LineAMVA,
   LineAMVA:1,LineAMVA:2,LineAMVA:3,LineAMVA:4,LineAMVA:5,LineAMVA:6,LineAMVA:7,
   LineShuntMW,LineShuntMW:1,LineShuntMVR,LineShuntMVR:1,LineTap,LinePhase,
   SeriesCapStatus,NormLineStatus,SeriesCapStatus,LineIsSeriesCap,LineMeter,
   LineMCMVA,LSName,LineMonEle,LPOPFConstraint,TimeDomainSelected,
   LineLPEnforceMVAEquality,LineLength,OwnerNum,OwnPercent,XfrmerMagnetizingG,
   XfrmerMagnetizingB,BranchDeviceType,ConsolidateBranch,PVMonBranchMW,
   PVMonBranchMVR,PVMonBranchMVA,BranchMonPTDF,MonBranchPLoss,MonBranchQLoss,
   PVMonXfmrTap,PVMonXFRegVal,PVMonXFTapPos,PVMonXFRegErr])
{
    1     3 "1" "Closed"  0.000243  0.030387  0.000000  0.000000  1200.000  1150.000  1090.000     0.000     0.000     0.000     0.000     0.000    0.0000    0.0000    0.0000    0.0000 0.916191   0.000000 "Not Bypassed" "Closed" "Not Bypassed" "NO " "From" "" "Default" "YES" "No" "NO " "NO "   1.0000      1 100.0000   0.0012  -0.0042 "Transformer" "" "NO" "NO" "NO" "NO" "NO " "NO " "NO " "NO " "NO " "NO "
    3     4 "1" "Closed"  0.006000  0.054000  0.090000  0.000000     0.000     0.000     0.000     0.000     0.000     0.000     0.000     0.000    0.0000    0.0000    0.0000    0.0000 1.000000   0.000000 "Not Bypassed" "Closed" "Not Bypassed" "NO " "From" "" "Default" "YES" "No" "NO " "NO "  90.0000      2 100.0000 "" "" "Line" "" "NO" "NO" "NO" "NO" "NO " "NO " "NO " "NO" "NO" "NO"
    3     4 "2" "Closed"  0.006000  0.054000  0.090000  0.000000     0.000     0.000     0.000     0.000     0.000     0.000     0.000     0.000    0.0000    0.0000    0.0000    0.0000 1.000000   0.000000 "Not Bypassed" "Closed" "Not Bypassed" "NO " "From" "" "Default" "YES" "No" "NO " "NO "  90.0000      1 100.0000 "" "" "Line" "" "NO" "NO" "NO" "NO" "NO " "NO " "NO " "NO" "NO" "NO"
   10     4 " 1" "Closed"  0.000000  0.000010  0.000000  0.000000     0.000     0.000     0.000     0.000     0.000     0.000     0.000     0.000    0.0000    0.0000    0.0000    0.0000 1.000000   0.000000 "Not Bypassed" "Closed" "Not Bypassed" "NO " "From" "" "Default" "YES" "No" "NO " "NO "   0.0000      1 100.0000 "" "" "Line" "" "NO" "NO" "NO" "NO" "NO " "NO " "NO " "NO" "NO" "NO"
   11     4 " 1" "Closed"  0.000000  0.000010  0.000000  0.000000     0.000     0.000     0.000     0.000     0.000     0.000     0.000     0.000    0.0000    0.0000    0.0000    0.0000 1.000000   0.000000 "Not Bypassed" "Closed" "Not Bypassed" "NO " "From" "" "Default" "YES" "No" "NO " "NO "   0.0000      1 100.0000 "" "" "Line" "" "NO" "NO" "NO" "NO" "NO " "NO " "NO " "NO" "NO" "NO"
    7     6 "T9" "Closed"  0.000178  0.005333  0.000000  0.000000   900.000   850.000   799.000     0.000     0.000     0.000     0.000     0.000    0.0000    0.0000    0.0000    0.0000 1.015910  0.000000 "Not Bypassed" "Closed" "Not Bypassed" "NO " "From" "" "Default" "YES" "No" "NO " "NO "   1.0000      1 100.0000   0.0011  -0.0005 "Transformer" "" "NO" "NO" "NO" "NO" "NO " "NO " "NO " "NO " "NO " "NO "
    7     5 " 1" "Closed"  0.000000  0.000010  0.000000  0.000000     0.000     0.000     0.000     0.000     0.000     0.000     0.000     0.000    0.0000    0.0000    0.0000    0.0000 1.000000   0.000000 "Not Bypassed" "Closed" "Not Bypassed" "NO " "From" "" "Default" "YES" "No" "NO " "NO "   0.0000      1 100.0000 "" "" "Line" "" "NO" "NO" "NO" "NO" "NO " "NO " "NO " "NO" "NO" "NO"
    5     8 " 1" "Closed"  0.000000  0.000010  0.000000  0.000000     0.000     0.000     0.000     0.000     0.000     0.000     0.000     0.000    0.0000    0.0000    0.0000    0.0000 1.000000   0.000000 "Not Bypassed" "Closed" "Not Bypassed" "NO " "From" "" "Default" "YES" "No" "NO " "NO "   0.0000      2 100.0000 "" "" "Line" "" "NO" "NO" "NO" "NO" "NO " "NO " "NO " "NO" "NO" "NO"
    8     9 " 1" "Closed"  0.000000  0.008000  0.000000  0.000000     0.000     0.000     0.000     0.000     0.000     0.000     0.000     0.000    0.0000    0.0000    0.0000    0.0000 1.000000   0.000000 "Not Bypassed" "Closed" "Not Bypassed" "NO " "From" "" "Default" "YES" "No" "NO " "NO "   0.0000      1 100.0000 "" "" "Line" "" "NO" "NO" "NO" "NO" "NO " "NO " "NO " "NO" "NO" "NO"
    9    10 " 1" "Closed"  0.000000  0.000010  0.000000  0.000000     0.000     0.000     0.000     0.000     0.000     0.000     0.000     0.000    0.0000    0.0000    0.0000    0.0000 1.000000   0.000000 "Not Bypassed" "Closed" "Not Bypassed" "NO " "From" "" "Default" "YES" "No" "NO " "NO "   0.0000      1 100.0000 "" "" "Line" "" "NO" "NO" "NO" "NO" "NO " "NO " "NO " "NO" "NO" "NO"
    9    11 " 1" "Closed"  0.000000  0.000010  0.000000  0.000000     0.000     0.000     0.000     0.000     0.000     0.000     0.000     0.000    0.0000    0.0000    0.0000    0.0000 1.000000   0.000000 "Not Bypassed" "Closed" "Not Bypassed" "NO " "From" "" "Default" "YES" "No" "NO " "NO "   0.0000      1 100.0000 "" "" "Line" "" "NO" "NO" "NO" "NO" "NO " "NO " "NO " "NO" "NO" "NO"
}

DATA (TRANSFORMER, [BusNum,BusNum:1,LineCircuit,LineXFType,XFAuto,XFRegMin,XFRegMax,XFRegTargetType,
   XFTapMin,XFTapMax,XFStep,XFTableNum,XFRegBus,OPFAreaXFPS,LineXfmr,
   TimeDomainSelectedXF,XFOPFRegEnforceLimits,XFConfiguration,XFFixedTap,
   XFFixedTap:1,XFNominalKV,XFNominalKV:1,XFMVABase,UseDelay,UseSecRegRange,
   MoveDelay,MoveDelay:1,MoveDelay:2,MoveDelay:3,MoveDelay:4,MoveDelay:5,
   MoveDelay:6,MoveDelay:7,StepsToMove,StepsToMove:1,XFRegMin:1,XFRegMax:1])
{
    1     3 "1" "Fixed" "No"   0.93000   1.16000 "Middle of Reg Range"   0.87619   1.04781   0.00536      0     0 "NO " "YES" "NO " "NO " "Wye - Wye"   1.00000   1.00000  19.40000 230.00000 1000.00000 "NO " "NO "       30       30       15       15       15       15       10       10      1      1   0.51000   1.50000
    5     6 "T9" "Fixed" "No" -250.00000 -175.00000 "Middle of Reg Range"   0.97500   1.05000   0.00682      0     0 "NO " "YES" "NO " "NO " "Wye - Wye"   1.00000   1.00000 230.00000  19.40000 900.00000 "NO " "NO "       30       30       15       15       15       15       10       10      1      1  51.00000 150.00000
}

DATA (AREA, [AreaNum,AreaName,BGAGC,BGAutoSS,BGAutoXF,EnforceGenMWLimits,SAName,
   ConvergenceTol,AreaEDIncludeLossPF,BusSlack,AreaUnSpecifiedStudyMW,
   OPFAreaLoadMW,CTGMakeUpGen,OPFAreaXFTaps,OPFAreaXFPS,OPFAreaDCLineMW,
   OPFAreaLineLim,OPFAreaInterfaceLim,OPFAreaVoltLim,AreaLPOPFUseMargLoss,
   AreaLPUnenforceable,OPFAreaMWMC,DCLossMultiplier,MargCostReference,
   MargCostReference:1])
{
     1 "1" "Off AGC" "YES" "YES" "YES" ""   1.0000 "YES" ""        0.000 "NO "   0.0000 "NO " "NO " "YES" "YES" "YES" "NO " "NO " "   " ""   1.0000 "Existing" ""
     2 "2" "Off AGC" "YES" "YES" "YES" ""   1.0000 "YES" ""        0.000 "NO "   0.0000 "NO " "NO " "YES" "YES" "YES" "NO " "NO " "   " ""   1.0000 "Existing" ""
}

DATA (ZONE, [ZoneNum,ZoneName,DCLossMultiplier])
{
     1 "1"   1.0000
     2 "2"   1.0000
     6 "6"   1.0000
}

DATA (OWNER, [OwnerNum,OwnerName])
{
     1 "1"
   <SUBDATA Bus>
     1
     3
     4
     7
     8
     9
     10
     11
   </SUBDATA>
   <SUBDATA Load>
     4 1 
   </SUBDATA>
   <SUBDATA Gen>
     1 1 100.0
   </SUBDATA>
   <SUBDATA Branch>
     1 3 1 100.0
     3 4 2 100.0
     10 4  1 100.0
     11 4  1 100.0
     7 6 T9 100.0
     7 5  1 100.0
     8 9  1 100.0
     9 10  1 100.0
     9 11  1 100.0
   </SUBDATA>
     2 "2"
   <SUBDATA Bus>
     5
     6
   </SUBDATA>
   <SUBDATA Gen>
     6 1 100.0
   </SUBDATA>
   <SUBDATA Branch>
     3 4 1 100.0
     5 8  1 100.0
   </SUBDATA>
}
